data_crystal
 
_cell_length_a    4.04958
_cell_length_b    4.04958
_cell_length_c    4.04958
_cell_angle_alpha 90.00000
_cell_angle_beta  90.00000
_cell_angle_gamma 90.00000
 
_symmetry_space_group_name_Hall 'P 1'
_symmetry_space_group_name_H-M  'P 1'
 
loop_
_symmetry_equiv_pos_as_xyz
 'x,y,z' 
 
loop_
_atom_site_label
_atom_site_type_symbol
_atom_site_fract_x
_atom_site_fract_y
_atom_site_fract_z
_atom_site_charge
Al         Al      0.00000   0.00000   0.00000   0.0000000000
Al         Al      0.00000   0.50000   0.50000   0.0000000000
Al         Al      0.50000   0.00000   0.50000   0.0000000000
Al         Al      0.50000   0.50000   0.00000   0.0000000000
