data_crystal
 
_cell_length_a    6.35912
_cell_length_b    15.24600
_cell_length_c    15.24750
_cell_angle_alpha 118.08300
_cell_angle_beta  97.99470
_cell_angle_gamma 97.99280
 
_symmetry_space_group_name_Hall 'P 1'
_symmetry_space_group_name_H-M  'P 1'
 
loop_
_symmetry_equiv_pos_as_xyz
 'x,y,z' 
 
loop_
_atom_site_label
_atom_site_type_symbol
_atom_site_fract_x
_atom_site_fract_y
_atom_site_fract_z
_atom_site_charge
C          C       0.03634   0.90056   0.47138   0.0000000000
C          C       0.09158   0.46704   0.91391   0.0000000000
C          C       0.13577   0.57086   0.09941   0.0000000000
C          C       0.17768   0.08609   0.55319   0.0000000000
C          C       0.20505   0.42803   0.82863   0.0000000000
C          C       0.20830   0.98861   0.52670   0.0000000000
C          C       0.21967   0.53807   0.01136   0.0000000000
C          C       0.22298   0.59943   0.42801   0.0000000000
C          C       0.31839   0.52669   0.53806   0.0000000000
C          C       0.37645   0.17139   0.59950   0.0000000000
C          C       0.37546   0.55314   0.46703   0.0000000000
C          C       0.43509   0.47142   0.57086   0.0000000000
C          C       0.56491   0.52857   0.42913   0.0000000000
C          C       0.62453   0.44685   0.53296   0.0000000000
C          C       0.62355   0.82861   0.40050   0.0000000000
C          C       0.68160   0.47330   0.46193   0.0000000000
C          C       0.77702   0.40057   0.57199   0.0000000000
C          C       0.78033   0.46193   0.98864   0.0000000000
C          C       0.79170   0.01139   0.47330   0.0000000000
C          C       0.79495   0.57197   0.17137   0.0000000000
C          C       0.82232   0.91391   0.44682   0.0000000000
C          C       0.86423   0.42914   0.90059   0.0000000000
C          C       0.90842   0.53296   0.08609   0.0000000000
C          C       0.96366   0.09944   0.52862   0.0000000000
H          H       0.17473   0.54679   0.56683   0.0000000000
H          H       0.37206   0.97992   0.54679   0.0000000000
H          H       0.39212   0.56686   0.02004   0.0000000000
H          H       0.60788   0.43314   0.97996   0.0000000000
H          H       0.62794   0.02008   0.45321   0.0000000000
H          H       0.82527   0.45321   0.43317   0.0000000000
O          O       0.12267   0.34074   0.74766   0.0000000000
O          O       0.08295   0.80881   0.44262   0.0000000000
O          O       0.08887   0.64043   0.48039   0.0000000000
O          O       0.27413   0.63388   0.19114   0.0000000000
O          O       0.21806   0.59314   0.34072   0.0000000000
O          O       0.37507   0.25240   0.59322   0.0000000000
O          O       0.35975   0.44269   0.63389   0.0000000000
O          O       0.39155   0.48042   0.84000   0.0000000000
O          O       0.44845   0.84001   0.35950   0.0000000000
O          O       0.55155   0.15999   0.64050   0.0000000000
O          O       0.60845   0.51959   0.16000   0.0000000000
O          O       0.64025   0.55731   0.36611   0.0000000000
O          O       0.62493   0.74760   0.40678   0.0000000000
O          O       0.78194   0.40686   0.65928   0.0000000000
O          O       0.72587   0.36612   0.80886   0.0000000000
O          O       0.91113   0.35958   0.51961   0.0000000000
O          O       0.91705   0.19119   0.55738   0.0000000000
O          O       0.87733   0.65926   0.25234   0.0000000000
Cu         Cu      0.13114   0.31034   0.57616   0.0000000000
Cu         Cu      0.17919   0.73423   0.31026   0.0000000000
Cu         Cu      0.44497   0.57612   0.26576   0.0000000000
Cu         Cu      0.55503   0.42388   0.73424   0.0000000000
Cu         Cu      0.82081   0.26577   0.68974   0.0000000000
Cu         Cu      0.86886   0.68966   0.42384   0.0000000000
